[TITLE]
;;Project Title/Notes

[OPTIONS]
;;Option             Value
FLOW_UNITS           CFS
INFILTRATION         HORTON
FLOW_ROUTING         KINWAVE
LINK_OFFSETS         DEPTH
MIN_SLOPE            0
ALLOW_PONDING        NO
SKIP_STEADY_STATE    NO

START_DATE           05/01/2015
START_TIME           00:00:00
REPORT_START_DATE    05/01/2015
REPORT_START_TIME    00:00:00
END_DATE             05/31/2015
END_TIME             06:00:00
SWEEP_START          01/01
SWEEP_END            12/31
DRY_DAYS             0
REPORT_STEP          00:15:00
WET_STEP             00:05:00
DRY_STEP             01:00:00
ROUTING_STEP         0:00:30 

INERTIAL_DAMPING     PARTIAL
NORMAL_FLOW_LIMITED  BOTH
FORCE_MAIN_EQUATION  H-W
VARIABLE_STEP        0.75
LENGTHENING_STEP     0
MIN_SURFAREA         12.557
MAX_TRIALS           8
HEAD_TOLERANCE       0.005
SYS_FLOW_TOL         5
LAT_FLOW_TOL         5
MINIMUM_STEP         0.5
THREADS              1

[EVAPORATION]
;;Data Source    Parameters
;;-------------- ----------------
TIMESERIES       05/2015ETo
DRY_ONLY         NO

[RAINGAGES]
;;Name           Format    Interval SCF      Source    
;;-------------- --------- ------ ------ ----------
2                VOLUME    24:00    1.0      TIMESERIES 05/2015         

[SUBCATCHMENTS]
;;Name           Rain Gage        Outlet           Area     %Imperv  Width    %Slope   CurbLen  SnowPack        
;;-------------- ---------------- ---------------- -------- -------- -------- -------- -------- ----------------
1                2                8                21891.54673250 75       500      0.898723630775072 0                        
2                2                9                22237.86195040 75       500      0.899315114665845 0                        
3                2                11               20046.46913030 75       500      0.899166722706837 0                        

[SUBAREAS]
;;Subcatchment   N-Imperv   N-Perv     S-Imperv   S-Perv     PctZero    RouteTo    PctRouted 
;;-------------- ---------- ---------- ---------- ---------- ---------- ---------- ----------
1                0.01       0.1        0.05       0.05       100        OUTLET    
2                0.01       0.1        0.05       0.05       100        OUTLET    
3                0.01       0.1        0.05       0.05       100        OUTLET    

[INFILTRATION]
;;Subcatchment   MaxRate    MinRate    Decay      DryTime    MaxInfil  
;;-------------- ---------- ---------- ---------- ---------- ----------
1                3.0        0.5        4          7          0         
2                3.0        0.5        4          7          0         
3                3.0        0.5        4          7          0         

[JUNCTIONS]
;;Name           Elevation  MaxDepth   InitDepth  SurDepth   Aponded   
;;-------------- ---------- ---------- ---------- ---------- ----------
8                1171.3     0          0          0          0         
9                1043.3     0          0          0          0         
11               1000.7     0          0          0          0         

[OUTFALLS]
;;Name           Elevation  Type       Stage Data       Gated    Route To        
;;-------------- ---------- ---------- ---------------- -------- ----------------
13               958.0      FREE                        NO                       

[CONDUITS]
;;Name           From Node        To Node          Length     Roughness  InOffset   OutOffset  InitFlow   MaxFlow   
;;-------------- ---------------- ---------------- ---------- ---------- ---------- ---------- ---------- ----------
1                8                9                22704      0.03       0          0          0          0         
9                9                11               28512      0.03       0          0          0          0         
13               11               13               21648      0.03       0          0          0          0         

[XSECTIONS]
;;Link           Shape        Geom1            Geom2      Geom3      Geom4      Barrels    Culvert   
;;-------------- ------------ ---------------- ---------- ---------- ---------- ---------- ----------
1                TRAPEZOIDAL  12               6          2          2          1                    
9                TRAPEZOIDAL  12               6          2          2          1                    
13               TRAPEZOIDAL  12               6          2          2          1                    

[CURVES]
;;Name           Type       X-Value    Y-Value   
;;-------------- ---------- ---------- ----------
;Arcadia Hydrographic Survey PDF
Arcadia          Storage    958        0         
Arcadia                     958.1      0         
Arcadia                     958.2      0         
Arcadia                     958.3      0         
Arcadia                     958.4      0.0002    
Arcadia                     958.5      0.0006    
Arcadia                     958.6      0.001     
Arcadia                     958.7      0.002     
Arcadia                     958.8      0.003     
Arcadia                     958.9      0.004     
Arcadia                     959        0.005     
Arcadia                     959.1      0.007     
Arcadia                     959.2      0.008     
Arcadia                     959.3      0.01      
Arcadia                     959.4      0.01      
Arcadia                     959.5      0.01      
Arcadia                     959.6      0.02      
Arcadia                     959.7      0.02      
Arcadia                     959.8      0.02      
Arcadia                     959.9      0.03      
Arcadia                     960        0.03      
Arcadia                     960.1      0.03      
Arcadia                     960.2      0.04      
Arcadia                     960.3      0.04      
Arcadia                     960.4      0.04      
Arcadia                     960.5      0.05      
Arcadia                     960.6      0.05      
Arcadia                     960.7      0.06      
Arcadia                     960.8      0.06      
Arcadia                     960.9      0.06      
Arcadia                     961        0.3       
Arcadia                     961.1      0.3       
Arcadia                     961.2      0.3       
Arcadia                     961.3      0.3       
Arcadia                     961.4      0.3       
Arcadia                     961.5      0.3       
Arcadia                     961.6      0.3       
Arcadia                     961.7      0.3       
Arcadia                     961.8      0.4       
Arcadia                     961.9      0.4       
Arcadia                     962        0.5       
Arcadia                     962.1      0.5       
Arcadia                     962.2      0.6       
Arcadia                     962.3      0.6       
Arcadia                     962.4      0.6       
Arcadia                     962.5      0.6       
Arcadia                     962.6      0.6       
Arcadia                     962.7      0.6       
Arcadia                     962.8      0.7       
Arcadia                     962.9      0.7       
Arcadia                     963        0.9       
Arcadia                     963.1      1         
Arcadia                     963.2      1.2       
Arcadia                     963.3      1.6       
Arcadia                     963.4      2.1       
Arcadia                     963.5      2.7       
Arcadia                     963.6      3.5       
Arcadia                     963.7      4.3       
Arcadia                     963.8      5.2       
Arcadia                     963.9      6.3       
Arcadia                     964        7.7       
Arcadia                     964.1      8.3       
Arcadia                     964.2      9         
Arcadia                     964.3      9.6       
Arcadia                     964.4      10        
Arcadia                     964.5      11        
Arcadia                     964.6      12        
Arcadia                     964.7      12        
Arcadia                     964.8      13        
Arcadia                     964.9      14        
Arcadia                     965        15        
Arcadia                     965.1      17        
Arcadia                     965.2      19        
Arcadia                     965.3      21        
Arcadia                     965.4      23        
Arcadia                     965.5      25        
Arcadia                     965.6      27        
Arcadia                     965.7      30        
Arcadia                     965.8      32        
Arcadia                     965.9      35        
Arcadia                     966        41        
Arcadia                     966.1      43        
Arcadia                     966.2      44        
Arcadia                     966.3      46        
Arcadia                     966.4      47        
Arcadia                     966.5      49        
Arcadia                     966.6      51        
Arcadia                     966.7      53        
Arcadia                     966.8      55        
Arcadia                     966.9      57        
Arcadia                     967        59        
Arcadia                     967.1      61        
Arcadia                     967.2      62        
Arcadia                     967.3      63        
Arcadia                     967.4      64        
Arcadia                     967.5      65        
Arcadia                     967.6      66        
Arcadia                     967.7      68        
Arcadia                     967.8      69        
Arcadia                     967.9      70        
Arcadia                     968        71        
Arcadia                     968.1      72        
Arcadia                     968.2      74        
Arcadia                     968.3      75        
Arcadia                     968.4      78        
Arcadia                     968.5      80        
Arcadia                     968.6      83        
Arcadia                     968.7      87        
Arcadia                     968.8      89        
Arcadia                     968.9      90        
Arcadia                     969        92        
Arcadia                     969.1      94        
Arcadia                     969.2      95        
Arcadia                     969.3      97        
Arcadia                     969.4      99        
Arcadia                     969.5      101       
Arcadia                     969.6      103       
Arcadia                     969.7      104       
Arcadia                     969.8      107       
Arcadia                     969.9      109       
Arcadia                     970        111       
Arcadia                     970.1      114       
Arcadia                     970.2      117       
Arcadia                     970.3      120       
Arcadia                     970.4      123       
Arcadia                     970.5      127       
Arcadia                     970.6      130       
Arcadia                     970.7      133       
Arcadia                     970.8      136       
Arcadia                     970.9      138       
Arcadia                     971        148       
Arcadia                     971.1      150       
Arcadia                     971.2      152       
Arcadia                     971.3      154       
Arcadia                     971.4      157       
Arcadia                     971.5      159       
Arcadia                     971.6      162       
Arcadia                     971.7      165       
Arcadia                     971.8      171       
Arcadia                     971.9      180       
Arcadia                     972        191       
Arcadia                     972.1      194       
Arcadia                     972.2      196       
Arcadia                     972.3      198       
Arcadia                     972.4      200       
Arcadia                     972.5      202       
Arcadia                     972.6      204       
Arcadia                     972.7      206       
Arcadia                     972.8      208       
Arcadia                     972.9      210       
Arcadia                     973        213       
Arcadia                     973.1      215       
Arcadia                     973.2      218       
Arcadia                     973.3      220       
Arcadia                     973.4      223       
Arcadia                     973.5      227       
Arcadia                     973.6      230       
Arcadia                     973.7      232       
Arcadia                     973.8      235       
Arcadia                     973.9      238       
Arcadia                     974        242       
Arcadia                     974.1      244       
Arcadia                     974.2      246       
Arcadia                     974.3      248       
Arcadia                     974.4      251       
Arcadia                     974.5      253       
Arcadia                     974.6      255       
Arcadia                     974.7      257       
Arcadia                     974.8      260       
Arcadia                     974.9      262       
Arcadia                     975        265       
Arcadia                     975.1      269       
Arcadia                     975.2      272       
Arcadia                     975.3      277       
Arcadia                     975.4      281       
Arcadia                     975.5      285       
Arcadia                     975.6      288       
Arcadia                     975.7      292       
Arcadia                     975.8      296       
Arcadia                     975.9      299       
Arcadia                     976        312       
Arcadia                     976.1      316       
Arcadia                     976.2      319       
Arcadia                     976.3      322       
Arcadia                     976.4      325       
Arcadia                     976.5      328       
Arcadia                     976.6      331       
Arcadia                     976.7      335       
Arcadia                     976.8      338       
Arcadia                     976.9      341       
Arcadia                     977        345       
Arcadia                     977.1      347       
Arcadia                     977.2      349       
Arcadia                     977.3      351       
Arcadia                     977.4      353       
Arcadia                     977.5      355       
Arcadia                     977.6      357       
Arcadia                     977.7      359       
Arcadia                     977.8      361       
Arcadia                     977.9      363       
Arcadia                     978        365       
Arcadia                     978.1      367       
Arcadia                     978.2      369       
Arcadia                     978.3      372       
Arcadia                     978.4      374       
Arcadia                     978.5      377       
Arcadia                     978.6      380       
Arcadia                     978.7      382       
Arcadia                     978.8      385       
Arcadia                     978.9      388       
Arcadia                     979        397       
Arcadia                     979.1      399       
Arcadia                     979.2      402       
Arcadia                     979.3      404       
Arcadia                     979.4      406       
Arcadia                     979.5      409       
Arcadia                     979.6      411       
Arcadia                     979.7      414       
Arcadia                     979.8      416       
Arcadia                     979.9      419       
Arcadia                     980        423       
Arcadia                     980.1      427       
Arcadia                     980.2      431       
Arcadia                     980.3      437       
Arcadia                     980.4      441       
Arcadia                     980.5      444       
Arcadia                     980.6      448       
Arcadia                     980.7      451       
Arcadia                     980.8      454       
Arcadia                     980.9      457       
Arcadia                     981        470       
Arcadia                     981.1      475       
Arcadia                     981.2      480       
Arcadia                     981.3      484       
Arcadia                     981.4      489       
Arcadia                     981.5      493       
Arcadia                     981.6      498       
Arcadia                     981.7      502       
Arcadia                     981.8      507       
Arcadia                     981.9      514       
Arcadia                     982        521       
Arcadia                     982.1      523       
Arcadia                     982.2      525       
Arcadia                     982.3      528       
Arcadia                     982.4      530       
Arcadia                     982.5      532       
Arcadia                     982.6      534       
Arcadia                     982.7      536       
Arcadia                     982.8      538       
Arcadia                     982.9      540       
Arcadia                     983        542       
Arcadia                     983.1      545       
Arcadia                     983.2      547       
Arcadia                     983.3      550       
Arcadia                     983.4      554       
Arcadia                     983.5      558       
Arcadia                     983.6      564       
Arcadia                     983.7      568       
Arcadia                     983.8      573       
Arcadia                     983.9      577       
Arcadia                     984        584       
Arcadia                     984.1      587       
Arcadia                     984.2      589       
Arcadia                     984.3      592       
Arcadia                     984.4      595       
Arcadia                     984.5      597       
Arcadia                     984.6      600       
Arcadia                     984.7      603       
Arcadia                     984.8      606       
Arcadia                     984.9      611       
Arcadia                     985        625       
Arcadia                     985.1      632       
Arcadia                     985.2      638       
Arcadia                     985.3      644       
Arcadia                     985.4      649       
Arcadia                     985.5      653       
Arcadia                     985.6      657       
Arcadia                     985.7      662       
Arcadia                     985.8      666       
Arcadia                     985.9      670       
Arcadia                     986        684       
Arcadia                     986.1      688       
Arcadia                     986.2      693       
Arcadia                     986.3      698       
Arcadia                     986.4      702       
Arcadia                     986.5      707       
Arcadia                     986.6      711       
Arcadia                     986.7      715       
Arcadia                     986.8      720       
Arcadia                     986.9      724       
Arcadia                     987        733       
Arcadia                     987.1      736       
Arcadia                     987.2      739       
Arcadia                     987.3      742       
Arcadia                     987.4      746       
Arcadia                     987.5      749       
Arcadia                     987.6      752       
Arcadia                     987.7      755       
Arcadia                     987.8      758       
Arcadia                     987.9      762       
Arcadia                     988        767       
Arcadia                     988.1      771       
Arcadia                     988.2      775       
Arcadia                     988.3      780       
Arcadia                     988.4      786       
Arcadia                     988.5      793       
Arcadia                     988.6      801       
Arcadia                     988.7      808       
Arcadia                     988.8      813       
Arcadia                     988.9      818       
Arcadia                     989        824       
Arcadia                     989.1      828       
Arcadia                     989.2      832       
Arcadia                     989.3      836       
Arcadia                     989.4      840       
Arcadia                     989.5      844       
Arcadia                     989.6      848       
Arcadia                     989.7      852       
Arcadia                     989.8      858       
Arcadia                     989.9      864       
Arcadia                     990        874       
Arcadia                     990.1      883       
Arcadia                     990.2      892       
Arcadia                     990.3      901       
Arcadia                     990.4      906       
Arcadia                     990.5      911       
Arcadia                     990.6      915       
Arcadia                     990.7      920       
Arcadia                     990.8      924       
Arcadia                     990.9      929       
Arcadia                     991        942       
Arcadia                     991.1      947       
Arcadia                     991.2      951       
Arcadia                     991.3      955       
Arcadia                     991.4      959       
Arcadia                     991.5      964       
Arcadia                     991.6      968       
Arcadia                     991.7      973       
Arcadia                     991.8      977       
Arcadia                     991.9      981       
Arcadia                     992        986       
Arcadia                     992.1      989       
Arcadia                     992.2      992       
Arcadia                     992.3      995       
Arcadia                     992.4      998       
Arcadia                     992.5      1001      
Arcadia                     992.6      1004      
Arcadia                     992.7      1007      
Arcadia                     992.8      1010      
Arcadia                     992.9      1013      
Arcadia                     993        1019      
Arcadia                     993.1      1024      
Arcadia                     993.2      1030      
Arcadia                     993.3      1037      
Arcadia                     993.4      1044      
Arcadia                     993.5      1051      
Arcadia                     993.6      1057      
Arcadia                     993.7      1062      
Arcadia                     993.8      1066      
Arcadia                     993.9      1070      
Arcadia                     994        1074      
Arcadia                     994.1      1077      
Arcadia                     994.2      1080      
Arcadia                     994.3      1084      
Arcadia                     994.4      1087      
Arcadia                     994.5      1090      
Arcadia                     994.6      1094      
Arcadia                     994.7      1097      
Arcadia                     994.8      1101      
Arcadia                     994.9      1105      
Arcadia                     995        1111      
Arcadia                     995.1      1116      
Arcadia                     995.2      1123      
Arcadia                     995.3      1130      
Arcadia                     995.4      1134      
Arcadia                     995.5      1138      
Arcadia                     995.6      1142      
Arcadia                     995.7      1146      
Arcadia                     995.8      1149      
Arcadia                     995.9      1153      
Arcadia                     996        1161      
Arcadia                     996.1      1165      
Arcadia                     996.2      1169      
Arcadia                     996.3      1173      
Arcadia                     996.4      1177      
Arcadia                     996.5      1181      
Arcadia                     996.6      1186      
Arcadia                     996.7      1191      
Arcadia                     996.8      1197      
Arcadia                     996.9      1203      
Arcadia                     997        1208      
Arcadia                     997.1      1211      
Arcadia                     997.2      1214      
Arcadia                     997.3      1217      
Arcadia                     997.4      1220      
Arcadia                     997.5      1223      
Arcadia                     997.6      1227      
Arcadia                     997.7      1231      
Arcadia                     997.8      1234      
Arcadia                     997.9      1237      
Arcadia                     998        1240      
Arcadia                     998.1      1243      
Arcadia                     998.2      1246      
Arcadia                     998.3      1250      
Arcadia                     998.4      1253      
Arcadia                     998.5      1257      
Arcadia                     998.6      1263      
Arcadia                     998.7      1266      
Arcadia                     998.8      1270      
Arcadia                     998.9      1273      
Arcadia                     999        1277      
Arcadia                     999.1      1280      
Arcadia                     999.2      1284      
Arcadia                     999.3      1289      
Arcadia                     999.4      1296      
Arcadia                     999.5      1300      
Arcadia                     999.6      1305      
Arcadia                     999.7      1309      
Arcadia                     999.8      1313      
Arcadia                     999.9      1318      
Arcadia                     1000       1323      
Arcadia                     1000.1     1331      
Arcadia                     1000.2     1338      
Arcadia                     1000.3     1346      
Arcadia                     1000.4     1352      
Arcadia                     1000.5     1358      
Arcadia                     1000.6     1363      
Arcadia                     1000.7     1369      
Arcadia                     1000.8     1375      
Arcadia                     1000.9     1384      
Arcadia                     1001       1395      
Arcadia                     1001.1     1403      
Arcadia                     1001.2     1408      
Arcadia                     1001.3     1412      
Arcadia                     1001.4     1417      
Arcadia                     1001.5     1421      
Arcadia                     1001.6     1426      
Arcadia                     1001.7     1431      
Arcadia                     1001.8     1436      
Arcadia                     1001.9     1442      
Arcadia                     1002       1447      
Arcadia                     1002.1     1451      
Arcadia                     1002.2     1455      
Arcadia                     1002.3     1459      
Arcadia                     1002.4     1463      
Arcadia                     1002.5     1468      
Arcadia                     1002.6     1472      
Arcadia                     1002.7     1477      
Arcadia                     1002.8     1482      
Arcadia                     1002.9     1486      
Arcadia                     1003       1492      
Arcadia                     1003.1     1497      
Arcadia                     1003.2     1501      
Arcadia                     1003.3     1506      
Arcadia                     1003.4     1513      
Arcadia                     1003.5     1519      
Arcadia                     1003.6     1526      
Arcadia                     1003.7     1531      
Arcadia                     1003.8     1537      
Arcadia                     1003.9     1542      
Arcadia                     1004       1551      
Arcadia                     1004.1     1557      
Arcadia                     1004.2     1563      
Arcadia                     1004.3     1569      
Arcadia                     1004.4     1575      
Arcadia                     1004.5     1582      
Arcadia                     1004.6     1588      
Arcadia                     1004.7     1594      
Arcadia                     1004.8     1601      
Arcadia                     1004.9     1607      
Arcadia                     1005       1617      
Arcadia                     1005.1     1623      
Arcadia                     1005.2     1628      
Arcadia                     1005.3     1634      
Arcadia                     1005.4     1640      
Arcadia                     1005.5     1645      
Arcadia                     1005.6     1651      
Arcadia                     1005.7     1656      
Arcadia                     1005.8     1662      
Arcadia                     1005.9     1667      
Arcadia                     1006       1677      

[TIMESERIES]
;;Name           Date       Time       Value     
;;-------------- ---------- ---------- ----------
;Daily Data
05/2015          FILE "C:\Users\Local_Admin\Documents\Mesonet Weather Data\SWMM Precipitation DAT.dat"
;
;Daily Data
05/2015ETo       FILE "C:\Users\Local_Admin\Documents\Mesonet Weather Data\SWMM ETo inchperday.DAT"

[REPORT]
;;Reporting Options
INPUT      NO
CONTROLS   NO
SUBCATCHMENTS ALL
NODES ALL
LINKS ALL

[TAGS]

[MAP]
DIMENSIONS -2071.364 0.000 12071.364 10000.000
Units      None

[COORDINATES]
;;Node           X-Coord            Y-Coord           
;;-------------- ------------------ ------------------
8                2198.194           1839.049          